8500-Node/IEEE8500_VLL_Node.Txt

LINE-LINE VOLTAGES BY BUS & NODE

Bus                  Node    VLN (kV)   Angle      pu     Base kV 

SOURCEBUS .......... 1-2     120.75 /_   30.0      1.05   115.000
   -                 2-3     120.75 /_  -90.0      1.05   115.000
   -                 3-1     120.75 /_  150.0      1.05   115.000
_HVMV_SUB_LSB ...... 1-2     13.057 /_   -3.9    1.0471    12.470
   -                 2-3     13.074 /_ -123.9    1.0485    12.470
   -                 3-1     13.058 /_  116.0    1.0472    12.470
HVMV_SUB_48332 ..... 1-2     13.057 /_   -3.9    1.0471    12.470
   -                 2-3     13.074 /_ -123.9    1.0485    12.470
   -                 3-1     13.058 /_  116.0    1.0472    12.470
M1009763 ........... 1-2     11.089 /_  -13.8   0.88924    12.470
   -                 2-3     11.432 /_ -132.0   0.91675    12.470
   -                 3-1     11.564 /_  105.6   0.92731    12.470
L3085398 ........... 1-2     11.159 /_  -13.8   0.89486    12.470
   -                 2-3     11.484 /_ -132.1   0.92096    12.470
   -                 3-1     11.611 /_  105.7   0.93108    12.470
M1026891 ........... 1-2     11.152 /_  -13.8   0.89429    12.470
   -                 2-3     11.478 /_ -132.1   0.92042    12.470
   -                 3-1     11.606 /_  105.7   0.93074    12.470
L3216367 ........... 1-2     11.228 /_  -13.4   0.90043    12.470
   -                 2-3     11.486 /_ -132.0   0.92111    12.470
   -                 3-1     11.592 /_  106.2   0.92957    12.470
M1069468 ........... 1-2     11.227 /_  -13.4   0.90028    12.470
   -                 2-3     11.484 /_ -132.0   0.92091    12.470
   -                 3-1      11.59 /_  106.2   0.92942    12.470
M1047592 ........... 1-2     11.351 /_  -13.3   0.91027    12.470
   -                 2-3     11.645 /_ -131.8   0.93385    12.470
   -                 3-1     11.749 /_  106.2   0.94222    12.470
M1047339 ........... 1-2     11.708 /_  -10.7   0.93892    12.470
   -                 2-3     11.851 /_ -130.1   0.95036    12.470
   -                 3-1     11.901 /_  109.0   0.95437    12.470
M1026915 ........... 1-2     11.159 /_  -13.8   0.89487    12.470
   -                 2-3     11.486 /_ -132.1   0.92106    12.470
   -                 3-1     11.609 /_  105.7   0.93093    12.470
M1026920 ........... 1-2     11.157 /_  -13.8   0.89467    12.470
   -                 2-3     11.484 /_ -132.1   0.92091    12.470
   -                 3-1     11.606 /_  105.7   0.93073    12.470
M1069464 ........... 1-2     11.223 /_  -13.4   0.90004    12.470
   -                 2-3     11.479 /_ -132.1   0.92056    12.470
   -                 3-1     11.587 /_  106.2   0.92916    12.470
N1144665 ........... 1-2     11.379 /_  -13.1   0.91255    12.470
   -                 2-3     11.661 /_ -131.7   0.93513    12.470
   -                 3-1     11.757 /_  106.4    0.9428    12.470
M1047515 ........... 1-2     11.372 /_  -13.1   0.91192    12.470
   -                 2-3     11.654 /_ -131.7   0.93455    12.470
   -                 3-1     11.748 /_  106.4   0.94213    12.470
M1047312 ........... 1-2     11.653 /_  -10.8    0.9345    12.470
   -                 2-3     11.808 /_ -130.0   0.94692    12.470
   -                 3-1     11.864 /_  109.0   0.95139    12.470
L2822871 ........... 1-2     11.245 /_  -13.5   0.90179    12.470
   -                 2-3     11.568 /_ -132.0   0.92764    12.470
   -                 3-1     11.674 /_  105.9   0.93619    12.470
M1026872 ........... 1-2     11.241 /_  -13.5   0.90148    12.470
   -                 2-3     11.564 /_ -132.0   0.92734    12.470
   -                 3-1     11.671 /_  105.9   0.93595    12.470
N1140827 ........... 1-2      11.16 /_  -12.9   0.89495    12.470
   -                 2-3     11.503 /_ -131.9   0.92249    12.470
   -                 3-1       11.5 /_  106.2   0.92225    12.470
M1026726 ........... 1-2      11.16 /_  -12.9   0.89494    12.470
   -                 2-3     11.503 /_ -131.9   0.92247    12.470
   -                 3-1       11.5 /_  106.2   0.92224    12.470
L2730106 ........... 1-2     12.158 /_  -10.1   0.97495    12.470
   -                 2-3     12.333 /_ -129.4   0.98902    12.470
   -                 3-1     12.388 /_  109.6   0.99339    12.470
N1142099 ........... 1-2     12.154 /_  -10.1    0.9747    12.470
   -                 2-3      12.33 /_ -129.4    0.9888    12.470
   -                 3-1     12.385 /_  109.5    0.9932    12.470
M1026658 ........... 1-2     11.152 /_  -12.8   0.89432    12.470
   -                 2-3     11.495 /_ -131.9   0.92182    12.470
   -                 3-1     11.483 /_  106.1   0.92087    12.470
L2991914 ........... 1-2     11.308 /_  -13.0   0.90681    12.470
   -                 2-3     11.598 /_ -131.8   0.93007    12.470
   -                 3-1     11.678 /_  106.4   0.93647    12.470
M1047503 ........... 1-2     11.304 /_  -13.0   0.90651    12.470
   -                 2-3     11.596 /_ -131.8   0.92988    12.470
   -                 3-1     11.673 /_  106.4   0.93611    12.470
M1026702 ........... 1-2     11.186 /_  -12.9     0.897    12.470
   -                 2-3     11.523 /_ -131.9   0.92404    12.470
   -                 3-1     11.534 /_  106.2    0.9249    12.470
N1139551 ........... 1-2     11.175 /_  -12.9   0.89612    12.470
   -                 2-3     11.516 /_ -131.9   0.92352    12.470
   -                 3-1      11.52 /_  106.2   0.92384    12.470
M1069424 ........... 1-2       11.2 /_  -13.5   0.89813    12.470
   -                 2-3     11.446 /_ -132.1   0.91789    12.470
   -                 3-1     11.562 /_  106.1   0.92721    12.470
L2935549 ........... 1-2     11.196 /_  -13.5   0.89787    12.470
   -                 2-3     11.442 /_ -132.1   0.91753    12.470
   -                 3-1     11.559 /_  106.1   0.92696    12.470
M1026795 ........... 1-2     11.268 /_  -13.0   0.90362    12.470
   -                 2-3     11.573 /_ -131.8   0.92808    12.470
   -                 3-1      11.63 /_  106.3   0.93268    12.470
L3030199 ........... 1-2     12.453 /_   -8.4   0.99862    12.470
   -                 2-3     12.513 /_ -128.2    1.0035    12.470
   -                 3-1     12.514 /_  111.5    1.0036    12.470
M1125934 ........... 1-2     12.452 /_   -8.4   0.99856    12.470
   -                 2-3     12.512 /_ -128.2    1.0034    12.470
   -                 3-1     12.513 /_  111.5    1.0035    12.470
M1069189 ........... 1-2     11.969 /_   -9.9   0.95981    12.470
   -                 2-3      12.04 /_ -129.7   0.96553    12.470
   -                 3-1      12.05 /_  109.9   0.96628    12.470
221_312488 ......... 1-2     12.273 /_   -9.4   0.98423    12.470
   -                 2-3     12.428 /_ -128.7   0.99666    12.470
   -                 3-1     12.475 /_  110.3    1.0004    12.470
M1089183 ........... 1-2     12.273 /_   -9.4   0.98422    12.470
   -                 2-3     12.428 /_ -128.7   0.99666    12.470
   -                 3-1     12.475 /_  110.3    1.0004    12.470
F739845 ............ 1-2      11.62 /_  -10.8   0.93185    12.470
   -                 2-3     11.778 /_ -130.0   0.94454    12.470
   -                 3-1     11.843 /_  108.9   0.94973    12.470
293471 ............. 1-2      11.62 /_  -10.8   0.93184    12.470
   -                 2-3     11.778 /_ -130.0   0.94453    12.470
   -                 3-1     11.843 /_  108.9   0.94972    12.470
M1026783 ........... 1-2     11.257 /_  -13.0   0.90276    12.470
   -                 2-3     11.567 /_ -131.8   0.92757    12.470
   -                 3-1     11.618 /_  106.3   0.93167    12.470
M1026780 ........... 1-2     11.256 /_  -13.0   0.90262    12.470
   -                 2-3     11.566 /_ -131.8   0.92749    12.470
   -                 3-1     11.616 /_  106.3   0.93151    12.470
N1140819 ........... 1-2     11.165 /_  -12.9   0.89536    12.470
   -                 2-3     11.508 /_ -131.9   0.92285    12.470
   -                 3-1     11.508 /_  106.2   0.92282    12.470
M1026700 ........... 1-2     11.164 /_  -12.9   0.89525    12.470
   -                 2-3     11.507 /_ -131.9   0.92274    12.470
   -                 3-1     11.506 /_  106.2   0.92266    12.470
L2879070 ........... 1-2     11.337 /_  -13.3   0.90914    12.470
   -                 2-3     11.636 /_ -131.8   0.93311    12.470
   -                 3-1     11.739 /_  106.2   0.94141    12.470
L3216345 ........... 1-2     11.328 /_  -13.3    0.9084    12.470
   -                 2-3      11.63 /_ -131.9   0.93264    12.470
   -                 3-1     11.733 /_  106.1    0.9409    12.470
M1069428 ........... 1-2     11.203 /_  -13.5   0.89836    12.470
   -                 2-3      11.45 /_ -132.1    0.9182    12.470
   -                 3-1     11.565 /_  106.1   0.92743    12.470
Q14412 ............. 1-2     11.694 /_  -10.7   0.93774    12.470
   -                 2-3      11.84 /_ -130.0   0.94945    12.470
   -                 3-1     11.891 /_  109.0   0.95358    12.470
M1047325 ........... 1-2     11.689 /_  -10.7   0.93741    12.470
   -                 2-3     11.837 /_ -130.0    0.9492    12.470
   -                 3-1     11.888 /_  109.0   0.95336    12.470
M1108529 ........... 1-2     12.052 /_  -10.7   0.96651    12.470
   -                 2-3     12.242 /_ -129.8   0.98169    12.470
   -                 3-1     12.308 /_  109.0   0.98704    12.470
M1108532 ........... 1-2     12.049 /_  -10.7   0.96624    12.470
   -                 2-3     12.239 /_ -129.8   0.98146    12.470
   -                 3-1     12.306 /_  109.0   0.98685    12.470
M1047346 ........... 1-2      11.73 /_  -10.7   0.94067    12.470
   -                 2-3     11.867 /_ -130.1   0.95162    12.470
   -                 3-1     11.916 /_  109.0   0.95556    12.470
M1047345 ........... 1-2     11.724 /_  -10.7   0.94021    12.470
   -                 2-3     11.863 /_ -130.1    0.9513    12.470
   -                 3-1     11.912 /_  109.0   0.95525    12.470
L2767340 ........... 1-2     12.357 /_   -9.1   0.99091    12.470
   -                 2-3     12.499 /_ -128.6    1.0023    12.470
   -                 3-1     12.532 /_  110.6     1.005    12.470
M3037449 ........... 1-2     12.357 /_   -9.1   0.99091    12.470
   -                 2-3     12.498 /_ -128.6    1.0022    12.470
   -                 3-1     12.532 /_  110.6     1.005    12.470
L2674027 ........... 1-2     12.077 /_  -10.5    0.9685    12.470
   -                 2-3     12.264 /_ -129.7   0.98347    12.470
   -                 3-1     12.327 /_  109.1   0.98857    12.470
L2692633 ........... 1-2     12.068 /_  -10.6   0.96776    12.470
   -                 2-3     12.256 /_ -129.7   0.98282    12.470
   -                 3-1      12.32 /_  109.1     0.988    12.470
M1069135 ........... 1-2     11.767 /_  -10.7   0.94365    12.470
   -                 2-3     11.894 /_ -130.1   0.95379    12.470
   -                 3-1     11.942 /_  109.1   0.95768    12.470
R18242 ............. 1-2      11.76 /_  -10.7   0.94306    12.470
   -                 2-3     11.889 /_ -130.1    0.9534    12.470
   -                 3-1     11.938 /_  109.1    0.9573    12.470
M1047534 ........... 1-2       11.5 /_  -12.9   0.92221    12.470
   -                 2-3     11.768 /_ -131.6   0.94371    12.470
   -                 3-1     11.871 /_  106.6     0.952    12.470
N1136663 ........... 1-2     11.469 /_  -13.0   0.91973    12.470
   -                 2-3     11.742 /_ -131.6   0.94159    12.470
   -                 3-1     11.845 /_  106.6   0.94987    12.470
L2973153 ........... 1-2      11.25 /_  -13.4   0.90217    12.470
   -                 2-3     11.551 /_ -131.6   0.92633    12.470
   -                 3-1     11.722 /_  106.3   0.94003    12.470
N1136998 ........... 1-2     11.249 /_  -13.4   0.90207    12.470
   -                 2-3      11.55 /_ -131.5   0.92624    12.470
   -                 3-1     11.722 /_  106.3      0.94    12.470
M1142871 ........... 1-2     12.567 /_   -8.1    1.0078    12.470
   -                 2-3     12.678 /_ -127.8    1.0167    12.470
   -                 3-1     12.687 /_  111.6    1.0174    12.470
M1142874 ........... 1-2      12.56 /_   -8.2    1.0072    12.470
   -                 2-3     12.673 /_ -127.8    1.0163    12.470
   -                 3-1     12.682 /_  111.6     1.017    12.470
L2955081 ........... 1-2     12.431 /_   -8.6   0.99685    12.470
   -                 2-3      12.49 /_ -128.5    1.0016    12.470
   -                 3-1     12.481 /_  111.2    1.0009    12.470
M1108315 ........... 1-2     12.428 /_   -8.7   0.99666    12.470
   -                 2-3     12.488 /_ -128.6    1.0014    12.470
   -                 3-1     12.478 /_  111.1    1.0006    12.470
L2973162 ........... 1-2     11.537 /_  -10.9   0.92518    12.470
   -                 2-3     11.717 /_ -129.9   0.93961    12.470
   -                 3-1     11.809 /_  108.9   0.94698    12.470
M1026333 ........... 1-2     11.534 /_  -10.9   0.92496    12.470
   -                 2-3     11.714 /_ -129.9   0.93939    12.470
   -                 3-1     11.809 /_  108.9   0.94696    12.470
M1026854 ........... 1-2     11.281 /_  -13.4   0.90464    12.470
   -                 2-3     11.598 /_ -131.9   0.93006    12.470
   -                 3-1       11.7 /_  106.0   0.93828    12.470
D6413567_3_INT ..... 1-2      11.94 /_  -10.0   0.95753    12.470
   -                 2-3     12.022 /_ -129.7   0.96404    12.470
   -                 3-1     12.032 /_  109.8   0.96488    12.470
E182724 ............ 1-2      11.94 /_  -10.0   0.95752    12.470
   -                 2-3     12.022 /_ -129.7   0.96404    12.470
   -                 3-1     12.032 /_  109.8   0.96487    12.470
N1139541 ........... 1-2     11.943 /_  -10.0   0.95776    12.470
   -                 2-3     12.024 /_ -129.7    0.9642    12.470
   -                 3-1     12.034 /_  109.8   0.96502    12.470
M4122658 ........... 1-2     12.267 /_   -9.6   0.98369    12.470
   -                 2-3     12.424 /_ -128.9    0.9963    12.470
   -                 3-1     12.468 /_  110.1   0.99983    12.470
L2933135 ........... 1-2     12.184 /_  -10.0   0.97703    12.470
   -                 2-3     12.355 /_ -129.3   0.99076    12.470
   -                 3-1     12.407 /_  109.7   0.99492    12.470
L2729414 ........... 1-2     11.185 /_  -12.9   0.89699    12.470
   -                 2-3     11.523 /_ -131.9   0.92403    12.470
   -                 3-1     11.533 /_  106.2   0.92489    12.470
L2860490 ........... 1-2     11.745 /_  -10.7   0.94185    12.470
   -                 2-3     11.878 /_ -130.1    0.9525    12.470
   -                 3-1     11.926 /_  109.1   0.95641    12.470
L3104134 ........... 1-2     11.736 /_  -10.7   0.94116    12.470
   -                 2-3     11.871 /_ -130.1   0.95198    12.470
   -                 3-1      11.92 /_  109.0   0.95591    12.470
M1089118 ........... 1-2      12.04 /_   -9.7   0.96552    12.470
   -                 2-3     12.105 /_ -129.5   0.97074    12.470
   -                 3-1     12.113 /_  110.1   0.97139    12.470
M1108505 ........... 1-2     12.102 /_  -10.4   0.97045    12.470
   -                 2-3     12.286 /_ -129.6   0.98521    12.470
   -                 3-1     12.346 /_  109.3   0.99006    12.470
L2955047 ........... 1-2     12.094 /_  -10.4   0.96986    12.470
   -                 2-3     12.279 /_ -129.6   0.98468    12.470
   -                 3-1      12.34 /_  109.2   0.98961    12.470
L3214071 ........... 1-2     12.467 /_   -8.6   0.99972    12.470
   -                 2-3     12.593 /_ -128.2    1.0098    12.470
   -                 3-1     12.612 /_  111.1    1.0114    12.470
M1125952 ........... 1-2     12.457 /_   -8.7   0.99899    12.470
   -                 2-3     12.585 /_ -128.2    1.0092    12.470
   -                 3-1     12.605 /_  111.1    1.0108    12.470
L3142049 ........... 1-2     12.141 /_  -10.2   0.97363    12.470
   -                 2-3     12.319 /_ -129.4   0.98791    12.470
   -                 3-1     12.375 /_  109.5   0.99241    12.470
M1108493 ........... 1-2     12.129 /_  -10.3   0.97267    12.470
   -                 2-3     12.309 /_ -129.5   0.98708    12.470
   -                 3-1     12.366 /_  109.4    0.9917    12.470
M1069169 ........... 1-2     11.922 /_  -10.0   0.95606    12.470
   -                 2-3      12.01 /_ -129.7    0.9631    12.470
   -                 3-1     12.021 /_  109.8   0.96399    12.470
L3010556 ........... 1-2      11.91 /_  -10.1   0.95509    12.470
   -                 2-3     12.001 /_ -129.8   0.96236    12.470
   -                 3-1     12.014 /_  109.7   0.96345    12.470
M1026330 ........... 1-2     11.529 /_  -10.9   0.92455    12.470
   -                 2-3     11.709 /_ -129.8   0.93897    12.470
   -                 3-1     11.809 /_  108.9   0.94695    12.470
M1108381 ........... 1-2     12.279 /_   -9.4   0.98467    12.470
   -                 2-3     12.434 /_ -128.7   0.99709    12.470
   -                 3-1      12.48 /_  110.4    1.0008    12.470
L3254237 ........... 1-2     12.277 /_   -9.4   0.98454    12.470
   -                 2-3     12.432 /_ -128.7   0.99699    12.470
   -                 3-1     12.478 /_  110.3    1.0007    12.470
M1069519 ........... 1-2      11.79 /_  -12.1    0.9455    12.470
   -                 2-3     12.005 /_ -130.9   0.96273    12.470
   -                 3-1     12.119 /_  107.6   0.97181    12.470
M1089145 ........... 1-2     12.196 /_   -9.3   0.97806    12.470
   -                 2-3     12.263 /_ -129.1    0.9834    12.470
   -                 3-1     12.261 /_  110.5   0.98325    12.470
L3215385 ........... 1-2     12.196 /_   -9.3   0.97805    12.470
   -                 2-3     12.263 /_ -129.1   0.98339    12.470
   -                 3-1     12.261 /_  110.5   0.98324    12.470
M1026852 ........... 1-2      11.27 /_  -13.4   0.90381    12.470
   -                 2-3     11.589 /_ -131.9   0.92938    12.470
   -                 3-1     11.693 /_  106.0   0.93767    12.470
M1069420 ........... 1-2     11.193 /_  -13.5    0.8976    12.470
   -                 2-3     11.437 /_ -132.1   0.91715    12.470
   -                 3-1     11.556 /_  106.1   0.92668    12.470
E182732 ............ 1-2     11.223 /_  -12.9   0.90001    12.470
   -                 2-3     11.546 /_ -131.8    0.9259    12.470
   -                 3-1     11.578 /_  106.2   0.92848    12.470
M1026760 ........... 1-2     11.222 /_  -12.9   0.89995    12.470
   -                 2-3     11.545 /_ -131.8   0.92586    12.470
   -                 3-1     11.577 /_  106.2    0.9284    12.470
N1136354 ........... 1-2     11.789 /_  -12.2   0.94542    12.470
   -                 2-3     12.002 /_ -130.9   0.96247    12.470
   -                 3-1     12.118 /_  107.6    0.9718    12.470
L2745848 ........... 1-2      11.24 /_  -13.4   0.90138    12.470
   -                 2-3     11.502 /_ -132.0   0.92241    12.470
   -                 3-1     11.603 /_  106.2    0.9305    12.470
L2673308 ........... 1-2     11.238 /_  -13.4   0.90117    12.470
   -                 2-3     11.499 /_ -132.0   0.92212    12.470
   -                 3-1     11.601 /_  106.2    0.9303    12.470
L2991939 ........... 1-2     11.233 /_  -13.4   0.90076    12.470
   -                 2-3     11.492 /_ -132.0   0.92156    12.470
   -                 3-1     11.596 /_  106.2    0.9299    12.470
M1142851 ........... 1-2     12.641 /_   -7.8    1.0137    12.470
   -                 2-3     12.742 /_ -127.5    1.0218    12.470
   -                 3-1     12.743 /_  112.0    1.0219    12.470
196_31070 .......... 1-2     12.639 /_   -7.8    1.0135    12.470
   -                 2-3      12.74 /_ -127.5    1.0216    12.470
   -                 3-1     12.741 /_  111.9    1.0217    12.470
M1069350 ........... 1-2     11.169 /_  -13.6   0.89569    12.470
   -                 2-3     11.399 /_ -132.3   0.91413    12.470
   -                 3-1     11.523 /_  106.1   0.92402    12.470
N1144668 ........... 1-2     11.169 /_  -13.6   0.89568    12.470
   -                 2-3     11.399 /_ -132.3    0.9141    12.470
   -                 3-1     11.522 /_  106.1   0.92396    12.470
L3254238 ........... 1-2      11.63 /_  -10.8   0.93262    12.470
   -                 2-3     11.787 /_ -130.0   0.94522    12.470
   -                 3-1     11.849 /_  109.0   0.95021    12.470
M1047303 ........... 1-2      11.62 /_  -10.8   0.93186    12.470
   -                 2-3     11.778 /_ -130.0   0.94454    12.470
   -                 3-1     11.843 /_  108.9   0.94973    12.470
M1047528 ........... 1-2     11.416 /_  -13.1    0.9155    12.470
   -                 2-3     11.696 /_ -131.7   0.93796    12.470
   -                 3-1     11.801 /_  106.4   0.94633    12.470
L2858166 ........... 1-2     11.416 /_  -13.1   0.91545    12.470
   -                 2-3     11.696 /_ -131.7   0.93791    12.470
   -                 3-1       11.8 /_  106.4   0.94629    12.470
M1142843 ........... 1-2     12.665 /_   -7.7    1.0156    12.470
   -                 2-3     12.762 /_ -127.4    1.0234    12.470
   -                 3-1     12.761 /_  112.1    1.0233    12.470
L3081380 ........... 1-2     12.661 /_   -7.7    1.0153    12.470
   -                 2-3     12.758 /_ -127.5    1.0231    12.470
   -                 3-1     12.756 /_  112.0    1.0229    12.470
N1142104 ........... 1-2     12.112 /_  -10.4   0.97126    12.470
   -                 2-3     12.294 /_ -129.5   0.98589    12.470
   -                 3-1     12.354 /_  109.3   0.99066    12.470
M1108500 ........... 1-2     12.105 /_  -10.4   0.97074    12.470
   -                 2-3     12.289 /_ -129.6   0.98545    12.470
   -                 3-1     12.349 /_  109.3   0.99028    12.470
M1186061 ........... 1-2     12.859 /_   -5.8    1.0312    12.470
   -                 2-3     12.916 /_ -125.7    1.0358    12.470
   -                 3-1     12.905 /_  114.0    1.0349    12.470
M1069417 ........... 1-2      11.18 /_  -13.6   0.89658    12.470
   -                 2-3     11.418 /_ -132.2   0.91567    12.470
   -                 3-1     11.543 /_  106.1   0.92563    12.470
N1138597 ........... 1-2     11.179 /_  -13.6   0.89649    12.470
   -                 2-3     11.417 /_ -132.2   0.91555    12.470
   -                 3-1     11.541 /_  106.1   0.92554    12.470
M1142832 ........... 1-2     12.653 /_   -7.8    1.0147    12.470
   -                 2-3      12.75 /_ -127.6    1.0224    12.470
   -                 3-1     12.745 /_  111.9    1.0221    12.470
L3160865 ........... 1-2     12.651 /_   -7.8    1.0145    12.470
   -                 2-3     12.747 /_ -127.6    1.0222    12.470
   -                 3-1     12.742 /_  111.9    1.0218    12.470
L2822869 ........... 1-2     11.296 /_  -13.0   0.90582    12.470
   -                 2-3      11.59 /_ -131.8   0.92943    12.470
   -                 3-1     11.663 /_  106.4   0.93527    12.470
M1026808 ........... 1-2     11.286 /_  -13.0   0.90506    12.470
   -                 2-3     11.584 /_ -131.8   0.92893    12.470
   -                 3-1     11.651 /_  106.3   0.93432    12.470
M1089198 ........... 1-2     11.928 /_  -11.3   0.95654    12.470
   -                 2-3     12.133 /_ -130.3   0.97295    12.470
   -                 3-1     12.217 /_  108.3   0.97975    12.470
M1089201 ........... 1-2     11.905 /_  -11.5   0.95469    12.470
   -                 2-3     12.112 /_ -130.4   0.97131    12.470
   -                 3-1     12.201 /_  108.2   0.97839    12.470
M1047763 ........... 1-2     11.042 /_  -13.9   0.88547    12.470
   -                 2-3     11.371 /_ -131.1   0.91187    12.470
   -                 3-1      11.68 /_  106.2   0.93669    12.470
M1047513 ........... 1-2      11.34 /_  -13.1   0.90935    12.470
   -                 2-3     11.624 /_ -131.7   0.93215    12.470
   -                 3-1     11.714 /_  106.4   0.93935    12.470
M1047507 ........... 1-2      11.32 /_  -13.1   0.90776    12.470
   -                 2-3     11.606 /_ -131.8   0.93068    12.470
   -                 3-1     11.693 /_  106.4   0.93765    12.470
M1142863 ........... 1-2     12.615 /_   -7.9    1.0117    12.470
   -                 2-3      12.72 /_ -127.6      1.02    12.470
   -                 3-1     12.723 /_  111.8    1.0203    12.470
M1142818 ........... 1-2     12.458 /_   -8.3   0.99904    12.470
   -                 2-3     12.519 /_ -128.1    1.0039    12.470
   -                 3-1     12.522 /_  111.5    1.0042    12.470
P829965 ............ 1-2     12.457 /_   -8.3   0.99894    12.470
   -                 2-3     12.518 /_ -128.1    1.0039    12.470
   -                 3-1     12.521 /_  111.5    1.0041    12.470
Q14733 ............. 1-2     11.571 /_  -12.7   0.92787    12.470
   -                 2-3     11.828 /_ -131.4   0.94853    12.470
   -                 3-1     11.933 /_  106.8   0.95692    12.470
M1047568 ........... 1-2     11.566 /_  -12.8   0.92755    12.470
   -                 2-3     11.825 /_ -131.4   0.94825    12.470
   -                 3-1     11.929 /_  106.8   0.95664    12.470
M1069419 ........... 1-2     11.185 /_  -13.6   0.89695    12.470
   -                 2-3     11.425 /_ -132.2   0.91621    12.470
   -                 3-1     11.547 /_  106.1   0.92601    12.470
M1069418 ........... 1-2     11.183 /_  -13.6   0.89682    12.470
   -                 2-3     11.423 /_ -132.2   0.91602    12.470
   -                 3-1     11.546 /_  106.1   0.92587    12.470
M1026824 ........... 1-2     11.105 /_  -13.8   0.89056    12.470
   -                 2-3     11.435 /_ -132.0   0.91703    12.470
   -                 3-1     11.577 /_  105.7   0.92838    12.470
M3032980 ........... 1-2     12.863 /_   -5.8    1.0315    12.470
   -                 2-3     12.922 /_ -125.7    1.0362    12.470
   -                 3-1      12.91 /_  114.0    1.0353    12.470
M3032977 ........... 1-2     12.829 /_   -6.2    1.0288    12.470
   -                 2-3     12.895 /_ -126.0    1.0341    12.470
   -                 3-1     12.884 /_  113.6    1.0332    12.470
M3763618 ........... 1-2     11.347 /_  -13.3   0.90993    12.470
   -                 2-3     11.642 /_ -131.8    0.9336    12.470
   -                 3-1     11.746 /_  106.2   0.94193    12.470
M1047490 ........... 1-2     11.287 /_  -13.2   0.90515    12.470
   -                 2-3      11.57 /_ -131.8   0.92786    12.470
   -                 3-1     11.659 /_  106.3     0.935    12.470
M1047486 ........... 1-2     11.262 /_  -13.3   0.90313    12.470
   -                 2-3     11.535 /_ -131.9   0.92499    12.470
   -                 3-1     11.629 /_  106.2   0.93258    12.470
M1047669 ........... 1-2     11.241 /_  -13.4   0.90144    12.470
   -                 2-3     11.544 /_ -131.5   0.92572    12.470
   -                 3-1     11.719 /_  106.3   0.93978    12.470
M1047672 ........... 1-2     11.241 /_  -13.4   0.90141    12.470
   -                 2-3     11.543 /_ -131.5   0.92569    12.470
   -                 3-1     11.719 /_  106.3   0.93977    12.470
M1125919 ........... 1-2     12.446 /_   -8.4   0.99811    12.470
   -                 2-3     12.506 /_ -128.3    1.0029    12.470
   -                 3-1     12.505 /_  111.4    1.0028    12.470
M1142819 ........... 1-2      12.46 /_   -8.3   0.99923    12.470
   -                 2-3     12.521 /_ -128.1    1.0041    12.470
   -                 3-1     12.525 /_  111.6    1.0044    12.470
M1089143 ........... 1-2     12.197 /_   -9.3   0.97812    12.470
   -                 2-3     12.264 /_ -129.1   0.98346    12.470
   -                 3-1     12.262 /_  110.5   0.98331    12.470
M1069481 ........... 1-2     11.241 /_  -13.3   0.90148    12.470
   -                 2-3     11.504 /_ -132.0   0.92255    12.470
   -                 3-1     11.605 /_  106.2    0.9306    12.470
M1026331 ........... 1-2     11.532 /_  -10.9   0.92478    12.470
   -                 2-3     11.712 /_ -129.8    0.9392    12.470
   -                 3-1     11.809 /_  108.9   0.94696    12.470
M1108295 ........... 1-2     12.381 /_   -8.9   0.99289    12.470
   -                 2-3     12.442 /_ -128.7   0.99776    12.470
   -                 3-1     12.435 /_  111.0   0.99718    12.470
L2936279 ........... 1-2      12.36 /_   -8.9    0.9912    12.470
   -                 2-3     12.421 /_ -128.8   0.99611    12.470
   -                 3-1     12.415 /_  110.9   0.99558    12.470
M1089115 ........... 1-2     12.008 /_   -9.8   0.96296    12.470
   -                 2-3     12.072 /_ -129.6   0.96812    12.470
   -                 3-1     12.081 /_  110.1    0.9688    12.470
M1125968 ........... 1-2     12.393 /_   -9.0   0.99384    12.470
   -                 2-3      12.53 /_ -128.5    1.0048    12.470
   -                 3-1     12.559 /_  110.8    1.0071    12.470
M1069175 ........... 1-2     11.952 /_  -10.0   0.95844    12.470
   -                 2-3     12.029 /_ -129.7   0.96464    12.470
   -                 3-1     12.039 /_  109.9   0.96543    12.470
M3763619 ........... 1-2     11.347 /_  -13.3   0.90993    12.470
   -                 2-3     11.642 /_ -131.8   0.93362    12.470
   -                 3-1     11.746 /_  106.2   0.94195    12.470
M1089196 ........... 1-2     11.942 /_  -11.3   0.95767    12.470
   -                 2-3     12.145 /_ -130.3   0.97395    12.470
   -                 3-1     12.228 /_  108.4   0.98057    12.470
M1047484 ........... 1-2     11.257 /_  -13.3   0.90274    12.470
   -                 2-3     11.527 /_ -131.9   0.92441    12.470
   -                 3-1     11.623 /_  106.2    0.9321    12.470
L3010560 ........... 1-2     11.254 /_  -13.3   0.90252    12.470
   -                 2-3     11.523 /_ -132.0   0.92407    12.470
   -                 3-1      11.62 /_  106.2   0.93182    12.470
M1089112 ........... 1-2      11.99 /_   -9.8   0.96151    12.470
   -                 2-3     12.054 /_ -129.6   0.96665    12.470
   -                 3-1     12.063 /_  110.0   0.96734    12.470
L2990826 ........... 1-2     12.273 /_   -9.4   0.98422    12.470
   -                 2-3     12.428 /_ -128.7   0.99665    12.470
   -                 3-1     12.475 /_  110.3    1.0004    12.470
L2876797 ........... 1-2     11.053 /_  -13.8   0.88639    12.470
   -                 2-3     11.381 /_ -131.1   0.91268    12.470
   -                 3-1     11.682 /_  106.2   0.93678    12.470
R18241 ............. 1-2     11.048 /_  -13.8   0.88601    12.470
   -                 2-3     11.377 /_ -131.1   0.91234    12.470
   -                 3-1     11.681 /_  106.2   0.93674    12.470
M1047724 ........... 1-2     11.125 /_  -13.7   0.89214    12.470
   -                 2-3     11.443 /_ -131.3   0.91764    12.470
   -                 3-1     11.692 /_  106.2   0.93762    12.470
M1047722 ........... 1-2     11.121 /_  -13.7   0.89179    12.470
   -                 2-3     11.439 /_ -131.3   0.91733    12.470
   -                 3-1     11.691 /_  106.2   0.93755    12.470
D5534969_2_INT ..... 1-2     11.794 /_  -12.1   0.94575    12.470
   -                 2-3     12.012 /_ -130.9   0.96331    12.470
   -                 3-1      12.12 /_  107.6   0.97194    12.470
E182729 ............ 1-2     11.793 /_  -12.1   0.94571    12.470
   -                 2-3     12.012 /_ -130.9   0.96327    12.470
   -                 3-1      12.12 /_  107.6    0.9719    12.470
N1134477 ........... 1-2     11.796 /_  -12.1   0.94599    12.470
   -                 2-3     12.015 /_ -130.9   0.96352    12.470
   -                 3-1     12.122 /_  107.6    0.9721    12.470
M1047699 ........... 1-2     11.225 /_  -13.5   0.90013    12.470
   -                 2-3      11.53 /_ -131.5   0.92464    12.470
   -                 3-1     11.714 /_  106.2   0.93939    12.470
L2935554 ........... 1-2     11.216 /_  -13.5   0.89943    12.470
   -                 2-3     11.523 /_ -131.5   0.92405    12.470
   -                 3-1     11.712 /_  106.2   0.93921    12.470
M1047292 ........... 1-2     11.585 /_  -10.8     0.929    12.470
   -                 2-3     11.751 /_ -129.9   0.94235    12.470
   -                 3-1     11.826 /_  108.9   0.94837    12.470
L2952003 ........... 1-2     12.282 /_   -9.4   0.98496    12.470
   -                 2-3     12.437 /_ -128.7   0.99737    12.470
   -                 3-1     12.483 /_  110.4    1.0011    12.470
M1026706 ........... 1-2     11.161 /_  -12.9     0.895    12.470
   -                 2-3     11.504 /_ -131.9   0.92254    12.470
   -                 3-1     11.501 /_  106.2   0.92229    12.470
N1140825 ........... 1-2     11.161 /_  -12.9   0.89499    12.470
   -                 2-3     11.504 /_ -131.9   0.92253    12.470
   -                 3-1     11.501 /_  106.2   0.92228    12.470
M3763624 ........... 1-2     11.347 /_  -13.3   0.90993    12.470
   -                 2-3     11.642 /_ -131.8    0.9336    12.470
   -                 3-1     11.746 /_  106.2   0.94193    12.470
M1142839 ........... 1-2     12.655 /_   -7.8    1.0149    12.470
   -                 2-3     12.752 /_ -127.5    1.0226    12.470
   -                 3-1     12.748 /_  112.0    1.0223    12.470
226_23751 .......... 1-2     12.432 /_   -8.6   0.99693    12.470
   -                 2-3     12.491 /_ -128.5    1.0017    12.470
   -                 3-1     12.483 /_  111.2     1.001    12.470
L3027157 ........... 1-2     11.076 /_  -13.8   0.88823    12.470
   -                 2-3     11.401 /_ -131.2   0.91428    12.470
   -                 3-1     11.684 /_  106.2     0.937    12.470
L2973155 ........... 1-2     11.065 /_  -13.8   0.88734    12.470
   -                 2-3     11.392 /_ -131.1   0.91351    12.470
   -                 3-1     11.683 /_  106.2   0.93689    12.470
M1186052 ........... 1-2      12.85 /_   -5.8    1.0305    12.470
   -                 2-3     12.908 /_ -125.7    1.0351    12.470
   -                 3-1     12.897 /_  114.0    1.0342    12.470
198_5320 ........... 1-2      12.85 /_   -5.8    1.0305    12.470
   -                 2-3     12.908 /_ -125.7    1.0351    12.470
   -                 3-1     12.897 /_  114.0    1.0342    12.470
M1069285 ........... 3-1     11.518 /_  106.1   0.92362    12.470
M4113348 ........... 3-1     11.512 /_  106.1   0.92315    12.470
E193509 ............ 1-2     12.658 /_   -7.7     1.015    12.470
   -                 2-3     12.754 /_ -127.5    1.0228    12.470
   -                 3-1     12.751 /_  112.0    1.0225    12.470
L3027116 ........... 1-2     11.614 /_  -10.8   0.93133    12.470
   -                 2-3     11.773 /_ -130.0   0.94413    12.470
   -                 3-1      11.84 /_  108.9   0.94947    12.470
M1166375 ........... 1-2     12.749 /_   -7.0    1.0224    12.470
   -                 2-3     12.833 /_ -126.8    1.0291    12.470
   -                 3-1     12.827 /_  112.8    1.0287    12.470
M1069311 ........... 1-2     11.169 /_  -13.6   0.89563    12.470
   -                 2-3     11.397 /_ -132.3   0.91396    12.470
   -                 3-1     11.518 /_  106.1   0.92369    12.470
M1026662 ........... 1-2     11.153 /_  -12.8   0.89437    12.470
   -                 2-3     11.497 /_ -131.9   0.92194    12.470
   -                 3-1     11.486 /_  106.1   0.92105    12.470
M1047713 ........... 1-2     11.211 /_  -13.5   0.89905    12.470
   -                 2-3     11.519 /_ -131.5   0.92372    12.470
   -                 3-1     11.711 /_  106.2   0.93911    12.470
M1047720 ........... 1-2     11.199 /_  -13.5   0.89811    12.470
   -                 2-3     11.508 /_ -131.4   0.92288    12.470
   -                 3-1     11.708 /_  106.2    0.9389    12.470
M1108298 ........... 1-2     12.423 /_   -8.7   0.99622    12.470
   -                 2-3     12.483 /_ -128.6     1.001    12.470
   -                 3-1     12.474 /_  111.1    1.0003    12.470
196_36167 .......... 1-2     12.422 /_   -8.8   0.99615    12.470
   -                 2-3     12.482 /_ -128.6     1.001    12.470
   -                 3-1     12.473 /_  111.1    1.0003    12.470
E183472 ............ 1-2     12.318 /_   -9.3   0.98779    12.470
   -                 2-3     12.466 /_ -128.7   0.99969    12.470
   -                 3-1     12.506 /_  110.4    1.0029    12.470
L2989566 ........... 1-2     12.302 /_   -9.3   0.98655    12.470
   -                 2-3     12.455 /_ -128.7   0.99876    12.470
   -                 3-1     12.497 /_  110.4    1.0022    12.470
P862322 ............ 1-2     12.279 /_   -9.4   0.98467    12.470
   -                 2-3     12.434 /_ -128.7   0.99709    12.470
   -                 3-1      12.48 /_  110.4    1.0008    12.470
M1142868 ........... 1-2     12.581 /_   -8.1    1.0089    12.470
   -                 2-3     12.691 /_ -127.7    1.0177    12.470
   -                 3-1     12.698 /_  111.7    1.0182    12.470
M1142869 ........... 1-2     12.572 /_   -8.1    1.0082    12.470
   -                 2-3     12.683 /_ -127.8    1.0171    12.470
   -                 3-1     12.691 /_  111.6    1.0177    12.470
N1134474 ........... 1-2     11.843 /_  -11.8    0.9497    12.470
   -                 2-3     12.057 /_ -130.7   0.96685    12.470
   -                 3-1     12.155 /_  107.9   0.97477    12.470
M1069496 ........... 1-2     11.836 /_  -11.9   0.94912    12.470
   -                 2-3      12.05 /_ -130.7   0.96633    12.470
   -                 3-1      12.15 /_  107.8   0.97435    12.470
P850072 ............ 1-2     12.275 /_   -9.4   0.98433    12.470
   -                 2-3      12.43 /_ -128.7   0.99677    12.470
   -                 3-1     12.476 /_  110.3    1.0005    12.470
221_311609 ......... 1-2     12.275 /_   -9.4   0.98433    12.470
   -                 2-3      12.43 /_ -128.7   0.99677    12.470
   -                 3-1     12.476 /_  110.3    1.0005    12.470
M1027023 ........... 1-2     11.056 /_  -13.7   0.88657    12.470
   -                 2-3     11.407 /_ -132.2   0.91474    12.470
   -                 3-1      11.49 /_  105.5   0.92143    12.470
N1140828 ........... 1-2     11.158 /_  -12.9   0.89482    12.470
   -                 2-3     11.503 /_ -131.9   0.92244    12.470
   -                 3-1     11.498 /_  106.1   0.92202    12.470
M1026708 ........... 1-2     11.158 /_  -12.9    0.8948    12.470
   -                 2-3     11.503 /_ -131.9   0.92243    12.470
   -                 3-1     11.497 /_  106.1   0.92199    12.470
L2876814 ........... 1-2      11.12 /_  -13.8   0.89173    12.470
   -                 2-3     11.448 /_ -132.0   0.91803    12.470
   -                 3-1     11.588 /_  105.7   0.92927    12.470
M1026834 ........... 1-2     11.114 /_  -13.8   0.89123    12.470
   -                 2-3     11.442 /_ -132.0   0.91757    12.470
   -                 3-1     11.585 /_  105.7     0.929    12.470
P827525 ............ 1-2     11.183 /_  -13.7   0.89681    12.470
   -                 2-3     11.509 /_ -132.1   0.92291    12.470
   -                 3-1     11.628 /_  105.7   0.93247    12.470
M1026902 ........... 1-2     11.177 /_  -13.7   0.89632    12.470
   -                 2-3     11.503 /_ -132.1   0.92243    12.470
   -                 3-1     11.623 /_  105.7   0.93211    12.470
N1144663 ........... 1-2     11.852 /_  -11.8   0.95044    12.470
   -                 2-3     12.065 /_ -130.7   0.96751    12.470
   -                 3-1     12.162 /_  107.9   0.97529    12.470
M1089215 ........... 1-2     11.849 /_  -11.8   0.95018    12.470
   -                 2-3     12.062 /_ -130.7   0.96727    12.470
   -                 3-1      12.16 /_  107.9    0.9751    12.470
M1047324 ........... 1-2     11.688 /_  -10.7   0.93732    12.470
   -                 2-3     11.836 /_ -130.0   0.94913    12.470
   -                 3-1     11.888 /_  109.0    0.9533    12.470
L2897780 ........... 1-2     11.677 /_  -10.7   0.93644    12.470
   -                 2-3     11.827 /_ -130.0   0.94844    12.470
   -                 3-1      11.88 /_  109.0    0.9527    12.470
M1069411 ........... 1-2     11.178 /_  -13.6   0.89636    12.470
   -                 2-3     11.415 /_ -132.2   0.91537    12.470
   -                 3-1      11.54 /_  106.1    0.9254    12.470
L2711226 ........... 1-2     12.463 /_   -8.2   0.99944    12.470
   -                 2-3     12.523 /_ -128.1    1.0043    12.470
   -                 3-1     12.528 /_  111.6    1.0047    12.470
M1069533 ........... 1-2     11.789 /_  -12.2   0.94536    12.470
   -                 2-3     11.999 /_ -130.9   0.96225    12.470
   -                 3-1     12.118 /_  107.6   0.97178    12.470
N1136356 ........... 1-2     11.788 /_  -12.2   0.94534    12.470
   -                 2-3     11.999 /_ -130.9   0.96225    12.470
   -                 3-1     12.118 /_  107.6   0.97176    12.470
M1142865 ........... 1-2     12.604 /_   -8.0    1.0107    12.470
   -                 2-3      12.71 /_ -127.7    1.0193    12.470
   -                 3-1     12.715 /_  111.8    1.0196    12.470
M1047526 ........... 1-2     11.422 /_  -13.1     0.916    12.470
   -                 2-3     11.702 /_ -131.7   0.93839    12.470
   -                 3-1     11.805 /_  106.4    0.9467    12.470
N1136666 ........... 1-2     11.421 /_  -13.1   0.91586    12.470
   -                 2-3       11.7 /_ -131.7   0.93827    12.470
   -                 3-1     11.804 /_  106.4    0.9466    12.470
M1209790 ........... 1-2     12.941 /_   -5.1    1.0378    12.470
   -                 2-3     12.984 /_ -125.1    1.0412    12.470
   -                 3-1     12.968 /_  114.8    1.0399    12.470
M1209788 ........... 1-2     12.932 /_   -5.2    1.0371    12.470
   -                 2-3     12.977 /_ -125.1    1.0407    12.470
   -                 3-1     12.961 /_  114.7    1.0394    12.470
L2851933 ........... 1-2     11.162 /_  -12.9   0.89512    12.470
   -                 2-3     11.505 /_ -131.9   0.92263    12.470
   -                 3-1     11.504 /_  106.2   0.92254    12.470
L3207907 ........... 1-2     11.162 /_  -12.9   0.89511    12.470
   -                 2-3     11.505 /_ -131.9   0.92262    12.470
   -                 3-1     11.504 /_  106.2   0.92253    12.470
M1108380 ........... 1-2      12.29 /_   -9.4    0.9856    12.470
   -                 2-3     12.445 /_ -128.7   0.99799    12.470
   -                 3-1     12.491 /_  110.4    1.0016    12.470
M1027043 ........... 1-2     11.051 /_  -13.7   0.88619    12.470
   -                 2-3     11.404 /_ -132.2    0.9145    12.470
   -                 3-1     11.483 /_  105.5   0.92087    12.470
M1089131 ........... 1-2      12.11 /_   -9.5    0.9711    12.470
   -                 2-3     12.176 /_ -129.3   0.97644    12.470
   -                 3-1      12.18 /_  110.3   0.97674    12.470
M1026724 ........... 1-2     11.197 /_  -12.9   0.89789    12.470
   -                 2-3      11.53 /_ -131.9   0.92458    12.470
   -                 3-1     11.547 /_  106.2   0.92597    12.470
R18243 ............. 1-2     11.196 /_  -12.9   0.89784    12.470
   -                 2-3     11.529 /_ -131.9   0.92455    12.470
   -                 3-1     11.546 /_  106.2   0.92591    12.470
M1142860 ........... 1-2     12.624 /_   -7.9    1.0124    12.470
   -                 2-3     12.727 /_ -127.6    1.0206    12.470
   -                 3-1      12.73 /_  111.9    1.0209    12.470
M1069556 ........... 1-2     11.788 /_  -12.2   0.94532    12.470
   -                 2-3     11.999 /_ -130.9   0.96225    12.470
   -                 3-1     12.118 /_  107.6   0.97176    12.470
L2691967 ........... 1-2     11.684 /_  -12.5   0.93698    12.470
   -                 2-3     11.924 /_ -131.2   0.95624    12.470
   -                 3-1     12.031 /_  107.2   0.96482    12.470
M1069504 ........... 1-2     11.671 /_  -12.5   0.93596    12.470
   -                 2-3     11.914 /_ -131.2   0.95538    12.470
   -                 3-1      12.02 /_  107.1   0.96394    12.470
L2766718 ........... 1-2     11.892 /_  -10.2   0.95369    12.470
   -                 2-3     11.987 /_ -129.8   0.96128    12.470
   -                 3-1     12.005 /_  109.6   0.96268    12.470
L3048206 ........... 1-2     11.877 /_  -10.2   0.95248    12.470
   -                 2-3     11.976 /_ -129.8   0.96037    12.470
   -                 3-1     11.997 /_  109.6   0.96204    12.470
P850080 ............ 1-2     12.275 /_   -9.4   0.98436    12.470
   -                 2-3      12.43 /_ -128.7    0.9968    12.470
   -                 3-1     12.476 /_  110.3    1.0005    12.470
221_311905 ......... 1-2     12.275 /_   -9.4   0.98436    12.470
   -                 2-3      12.43 /_ -128.7    0.9968    12.470
   -                 3-1     12.476 /_  110.3    1.0005    12.470
M1186072 ........... 1-2     12.877 /_   -5.7    1.0326    12.470
   -                 2-3     12.933 /_ -125.6    1.0371    12.470
   -                 3-1      12.92 /_  114.1    1.0361    12.470
M1186067 ........... 1-2      12.87 /_   -5.7    1.0321    12.470
   -                 2-3     12.928 /_ -125.7    1.0367    12.470
   -                 3-1     12.915 /_  114.1    1.0357    12.470
R42247 ............. 1-2     12.705 /_   -7.5    1.0188    12.470
   -                 2-3     12.796 /_ -127.2    1.0262    12.470
   -                 3-1     12.795 /_  112.3     1.026    12.470
M1149233 ........... 1-2     12.696 /_   -7.5    1.0181    12.470
   -                 2-3     12.789 /_ -127.3    1.0256    12.470
   -                 3-1     12.788 /_  112.3    1.0255    12.470
M1069136 ........... 1-2     11.779 /_  -10.6   0.94458    12.470
   -                 2-3     11.902 /_ -130.0   0.95448    12.470
   -                 3-1     11.948 /_  109.2   0.95811    12.470
M1026744 ........... 1-2     11.212 /_  -12.9   0.89909    12.470
   -                 2-3     11.539 /_ -131.8   0.92532    12.470
   -                 3-1     11.565 /_  106.2    0.9274    12.470
M1069457 ........... 1-2     11.214 /_  -13.5   0.89929    12.470
   -                 2-3     11.466 /_ -132.1    0.9195    12.470
   -                 3-1     11.577 /_  106.2   0.92837    12.470
M1149236 ........... 1-2     12.716 /_   -7.3    1.0197    12.470
   -                 2-3     12.805 /_ -127.1    1.0269    12.470
   -                 3-1     12.803 /_  112.4    1.0267    12.470
P828362 ............ 1-2     11.364 /_  -13.2   0.91133    12.470
   -                 2-3     11.649 /_ -131.7   0.93416    12.470
   -                 3-1     11.766 /_  106.3   0.94357    12.470
N1136671 ........... 1-2     11.364 /_  -13.2   0.91127    12.470
   -                 2-3     11.648 /_ -131.7    0.9341    12.470
   -                 3-1     11.766 /_  106.3   0.94353    12.470
N1137992 ........... 1-2     11.314 /_  -13.1   0.90733    12.470
   -                 2-3       11.6 /_ -131.8   0.93022    12.470
   -                 3-1     11.687 /_  106.4   0.93722    12.470
196_29520 .......... 1-2     11.314 /_  -13.1   0.90731    12.470
   -                 2-3     11.599 /_ -131.8   0.93019    12.470
   -                 3-1     11.687 /_  106.4    0.9372    12.470
M1108311 ........... 1-2     12.427 /_   -8.7   0.99654    12.470
   -                 2-3     12.486 /_ -128.6    1.0013    12.470
   -                 3-1     12.477 /_  111.1    1.0005    12.470
L3048965 ........... 1-2     12.676 /_   -7.6    1.0165    12.470
   -                 2-3     12.771 /_ -127.4    1.0241    12.470
   -                 3-1      12.77 /_  112.1    1.0241    12.470
L3216123 ........... 1-2     11.268 /_  -13.4   0.90357    12.470
   -                 2-3     11.566 /_ -131.6   0.92749    12.470
   -                 3-1     11.728 /_  106.3   0.94052    12.470
N1136996 ........... 1-2     11.255 /_  -13.4   0.90254    12.470
   -                 2-3     11.555 /_ -131.6   0.92663    12.470
   -                 3-1     11.724 /_  106.3   0.94016    12.470
L3125349 ........... 1-2      11.17 /_  -13.6   0.89575    12.470
   -                 2-3     11.401 /_ -132.2   0.91429    12.470
   -                 3-1     11.527 /_  106.1   0.92435    12.470
N1138604 ........... 1-2      11.17 /_  -13.6   0.89573    12.470
   -                 2-3       11.4 /_ -132.2   0.91422    12.470
   -                 3-1     11.525 /_  106.1   0.92421    12.470
D5710794_3_INT ..... 1-2     13.054 /_   -3.9    1.0468    12.470
   -                 2-3     13.072 /_ -124.0    1.0483    12.470
   -                 3-1     13.056 /_  116.0     1.047    12.470
E192860 ............ 1-2     13.053 /_   -3.9    1.0468    12.470
   -                 2-3     13.072 /_ -124.0    1.0483    12.470
   -                 3-1     13.056 /_  116.0     1.047    12.470
M1027002 ........... 1-2      11.07 /_  -13.7   0.88771    12.470
   -                 2-3     11.417 /_ -132.2   0.91556    12.470
   -                 3-1     11.509 /_  105.5   0.92293    12.470
L2673313 ........... 1-2     11.066 /_  -13.7   0.88741    12.470
   -                 2-3     11.414 /_ -132.2   0.91533    12.470
   -                 3-1     11.504 /_  105.5   0.92254    12.470
M1047300 ........... 1-2     11.607 /_  -10.8   0.93082    12.470
   -                 2-3     11.768 /_ -130.0   0.94374    12.470
   -                 3-1     11.837 /_  108.9   0.94922    12.470
M1047299 ........... 1-2     11.602 /_  -10.8   0.93037    12.470
   -                 2-3     11.764 /_ -130.0   0.94339    12.470
   -                 3-1     11.834 /_  108.9     0.949    12.470
M1026701 ........... 1-2     11.157 /_  -12.8    0.8947    12.470
   -                 2-3     11.502 /_ -131.9   0.92239    12.470
   -                 3-1     11.496 /_  106.1   0.92187    12.470
M1026697 ........... 1-2     11.156 /_  -12.8   0.89464    12.470
   -                 2-3     11.502 /_ -131.9   0.92235    12.470
   -                 3-1     11.494 /_  106.1   0.92177    12.470
N1140823 ........... 1-2     11.163 /_  -12.9    0.8952    12.470
   -                 2-3     11.506 /_ -131.9    0.9227    12.470
   -                 3-1     11.505 /_  106.2   0.92262    12.470
M1125976 ........... 1-2     12.386 /_   -9.0    0.9933    12.470
   -                 2-3     12.524 /_ -128.5    1.0043    12.470
   -                 3-1     12.554 /_  110.7    1.0067    12.470
D5535139_1_INT ..... 1-2     12.302 /_   -9.4   0.98651    12.470
   -                 2-3     12.453 /_ -128.8   0.99864    12.470
   -                 3-1     12.494 /_  110.3    1.0019    12.470
E183473 ............ 1-2     12.301 /_   -9.4   0.98646    12.470
   -                 2-3     12.452 /_ -128.8   0.99859    12.470
   -                 3-1     12.493 /_  110.3    1.0019    12.470
M1125997 ........... 1-2     12.302 /_   -9.4   0.98655    12.470
   -                 2-3     12.453 /_ -128.8   0.99867    12.470
   -                 3-1     12.494 /_  110.3    1.0019    12.470
M1009784 ........... 1-2     11.091 /_  -13.8   0.88943    12.470
   -                 2-3     11.433 /_ -132.0   0.91681    12.470
   -                 3-1     11.565 /_  105.6   0.92743    12.470
M1009770 ........... 1-2     11.089 /_  -13.8   0.88929    12.470
   -                 2-3     11.432 /_ -132.0   0.91679    12.470
   -                 3-1     11.564 /_  105.6   0.92732    12.470
N1136669 ........... 1-2      11.38 /_  -13.2   0.91262    12.470
   -                 2-3     11.666 /_ -131.8   0.93551    12.470
   -                 3-1     11.773 /_  106.3   0.94413    12.470
L3103822 ........... 1-2     11.374 /_  -13.2   0.91211    12.470
   -                 2-3     11.661 /_ -131.8   0.93515    12.470
   -                 3-1     11.768 /_  106.3   0.94371    12.470
M3768670 ........... 1-2      11.32 /_  -13.3   0.90778    12.470
   -                 2-3     11.625 /_ -131.9   0.93225    12.470
   -                 3-1     11.728 /_  106.1   0.94047    12.470
M1026926 ........... 1-2     11.151 /_  -13.8   0.89423    12.470
   -                 2-3      11.48 /_ -132.1    0.9206    12.470
   -                 3-1       11.6 /_  105.7   0.93026    12.470
221_242079 ......... 1-2     12.862 /_   -5.8    1.0314    12.470
   -                 2-3      12.92 /_ -125.7    1.0361    12.470
   -                 3-1     12.908 /_  114.0    1.0351    12.470
L3011293 ........... 1-2     12.861 /_   -5.8    1.0314    12.470
   -                 2-3      12.92 /_ -125.7    1.0361    12.470
   -                 3-1     12.908 /_  114.0    1.0351    12.470
M1108534 ........... 1-2     11.996 /_  -11.0   0.96197    12.470
   -                 2-3     12.192 /_ -130.0   0.97773    12.470
   -                 3-1     12.267 /_  108.7   0.98371    12.470
Q1301 .............. 1-2     12.637 /_   -7.8    1.0134    12.470
   -                 2-3     12.738 /_ -127.5    1.0215    12.470
   -                 3-1      12.74 /_  111.9    1.0216    12.470
L3160872 ........... 1-2     12.634 /_   -7.8    1.0132    12.470
   -                 2-3     12.736 /_ -127.5    1.0213    12.470
   -                 3-1     12.738 /_  111.9    1.0215    12.470
L3235255 ........... 1-2     11.672 /_  -10.8   0.93603    12.470
   -                 2-3     11.823 /_ -130.0   0.94812    12.470
   -                 3-1     11.877 /_  109.0   0.95242    12.470
M1047316 ........... 1-2     11.666 /_  -10.8   0.93554    12.470
   -                 2-3     11.818 /_ -130.0   0.94775    12.470
   -                 3-1     11.873 /_  109.0    0.9521    12.470
M1026886 ........... 1-2     11.229 /_  -13.6   0.90045    12.470
   -                 2-3     11.552 /_ -132.0   0.92635    12.470
   -                 3-1     11.661 /_  105.9   0.93515    12.470
L3120484 ........... 1-2     11.191 /_  -13.7   0.89742    12.470
   -                 2-3     11.516 /_ -132.1   0.92349    12.470
   -                 3-1     11.633 /_  105.8   0.93291    12.470
L2879078 ........... 1-2     11.155 /_  -12.8   0.89453    12.470
   -                 2-3       11.5 /_ -131.9   0.92224    12.470
   -                 3-1     11.492 /_  106.1   0.92153    12.470
M1026681 ........... 1-2     11.154 /_  -12.8    0.8945    12.470
   -                 2-3       11.5 /_ -131.9    0.9222    12.470
   -                 3-1     11.491 /_  106.1   0.92146    12.470
L3232902 ........... 1-2     12.272 /_   -9.6   0.98415    12.470
   -                 2-3     12.429 /_ -128.9   0.99668    12.470
   -                 3-1     12.472 /_  110.1    1.0002    12.470
L3123509 ........... 1-2     12.862 /_   -5.8    1.0314    12.470
   -                 2-3      12.92 /_ -125.7    1.0361    12.470
   -                 3-1     12.908 /_  114.0    1.0351    12.470
M1209772 ........... 1-2     12.862 /_   -5.8    1.0314    12.470
   -                 2-3      12.92 /_ -125.7    1.0361    12.470
   -                 3-1     12.908 /_  114.0    1.0351    12.470
R20703 ............. 1-2       12.3 /_   -9.4   0.98638    12.470
   -                 2-3     12.452 /_ -128.8   0.99853    12.470
   -                 3-1     12.493 /_  110.3    1.0018    12.470
L2859403 ........... 1-2     12.294 /_   -9.5   0.98587    12.470
   -                 2-3     12.446 /_ -128.8   0.99811    12.470
   -                 3-1     12.488 /_  110.3    1.0014    12.470
M1026927 ........... 1-2      11.15 /_  -13.8   0.89417    12.470
   -                 2-3     11.479 /_ -132.1   0.92055    12.470
   -                 3-1     11.599 /_  105.7   0.93019    12.470
M1125914 ........... 1-2     12.443 /_   -8.5   0.99783    12.470
   -                 2-3     12.502 /_ -128.3    1.0026    12.470
   -                 3-1       12.5 /_  111.4    1.0024    12.470
L2917328 ........... 1-2     12.442 /_   -8.5   0.99775    12.470
   -                 2-3     12.501 /_ -128.4    1.0025    12.470
   -                 3-1     12.498 /_  111.3    1.0023    12.470
L2841635 ........... 1-2     11.302 /_  -13.0   0.90631    12.470
   -                 2-3     11.594 /_ -131.8   0.92975    12.470
   -                 3-1      11.67 /_  106.4   0.93587    12.470
L2691954 ........... 1-2     11.577 /_  -10.8   0.92837    12.470
   -                 2-3     11.745 /_ -129.9   0.94188    12.470
   -                 3-1     11.823 /_  108.9   0.94811    12.470
L3122849 ........... 1-2     11.571 /_  -10.8   0.92792    12.470
   -                 2-3     11.741 /_ -129.9   0.94155    12.470
   -                 3-1     11.821 /_  108.9   0.94792    12.470
M1026907 ........... 1-2     11.164 /_  -13.8   0.89524    12.470
   -                 2-3     11.489 /_ -132.1   0.92132    12.470
   -                 3-1     11.613 /_  105.7    0.9313    12.470
L2822872 ........... 1-2     11.293 /_  -13.1   0.90565    12.470
   -                 2-3     11.577 /_ -131.8    0.9284    12.470
   -                 3-1     11.666 /_  106.3   0.93552    12.470
M1026844 ........... 1-2      11.12 /_  -13.8   0.89174    12.470
   -                 2-3     11.448 /_ -132.0   0.91805    12.470
   -                 3-1     11.588 /_  105.7   0.92928    12.470
L2973833 ........... 1-2     12.769 /_   -6.8     1.024    12.470
   -                 2-3     12.848 /_ -126.6    1.0303    12.470
   -                 3-1     12.841 /_  113.0    1.0298    12.470
M1166373 ........... 1-2     12.763 /_   -6.8    1.0235    12.470
   -                 2-3     12.844 /_ -126.7      1.03    12.470
   -                 3-1     12.837 /_  112.9    1.0295    12.470
M1125987 ........... 1-2     12.358 /_   -9.1   0.99099    12.470
   -                 2-3       12.5 /_ -128.6    1.0024    12.470
   -                 3-1     12.534 /_  110.6    1.0051    12.470
P901945 ............ 1-2     12.358 /_   -9.1   0.99098    12.470
   -                 2-3       12.5 /_ -128.6    1.0024    12.470
   -                 3-1     12.533 /_  110.6    1.0051    12.470
M1089119 ........... 1-2     12.056 /_   -9.7   0.96678    12.470
   -                 2-3     12.121 /_ -129.4   0.97203    12.470
   -                 3-1     12.129 /_  110.2   0.97266    12.470
L3784018 ........... 1-2     11.059 /_  -13.8   0.88683    12.470
   -                 2-3     11.386 /_ -131.1   0.91307    12.470
   -                 3-1     11.682 /_  106.2   0.93683    12.470
M1047550 ........... 1-2     11.527 /_  -12.8   0.92438    12.470
   -                 2-3     11.791 /_ -131.5   0.94555    12.470
   -                 3-1     11.895 /_  106.7   0.95388    12.470
M1047593 ........... 1-2     11.358 /_  -13.2   0.91084    12.470
   -                 2-3     11.643 /_ -131.7   0.93369    12.470
   -                 3-1     11.763 /_  106.3   0.94331    12.470
M1047615 ........... 1-2     11.342 /_  -13.3   0.90953    12.470
   -                 2-3     11.627 /_ -131.7   0.93242    12.470
   -                 3-1     11.755 /_  106.3   0.94263    12.470
M1089120 ........... 1-2     12.068 /_   -9.6   0.96778    12.470
   -                 2-3     12.134 /_ -129.4   0.97305    12.470
   -                 3-1     12.141 /_  110.2    0.9736    12.470
M1209787 ........... 1-2     12.917 /_   -5.3    1.0358    12.470
   -                 2-3     12.965 /_ -125.3    1.0397    12.470
   -                 3-1     12.949 /_  114.5    1.0384    12.470
L2823611 ........... 1-2     12.898 /_   -5.5    1.0344    12.470
   -                 2-3      12.95 /_ -125.4    1.0385    12.470
   -                 3-1     12.936 /_  114.4    1.0374    12.470
L2730163 ........... 1-2      12.45 /_   -8.4   0.99842    12.470
   -                 2-3      12.51 /_ -128.2    1.0032    12.470
   -                 3-1     12.511 /_  111.4    1.0033    12.470
L2726973 ........... 1-2     11.283 /_  -13.2   0.90484    12.470
   -                 2-3     11.565 /_ -131.9   0.92743    12.470
...